matpower/matpower-converter/src/test/resources/ieee118.xiidm
<?xml version="1.0" encoding="UTF-8"?>
<iidm:network xmlns:iidm="http://www.powsybl.org/schema/iidm/1_17" xmlns:slt="http://www.powsybl.org/schema/iidm/ext/slack_terminal/1_5" id="ieee118" caseDate="2020-01-01T00:00:00.000Z" forecastDistance="0" sourceFormat="MATPOWER" minimumValidationLevel="STEADY_STATE_HYPOTHESIS">
    <iidm:substation id="SUB-1">
        <iidm:voltageLevel id="VL-1" nominalV="1.0" lowVoltageLimit="0.94" highVoltageLimit="1.06" topologyKind="BUS_BREAKER">
            <iidm:busBreakerTopology>
                <iidm:bus id="BUS-1" v="0.955" angle="10.67"/>
            </iidm:busBreakerTopology>
            <iidm:generator id="GEN-1" energySource="OTHER" minP="0.0" maxP="100.0" ratedS="100.0" targetP="0.0" localTargetV="0.955" localTargetQ="0.0" bus="BUS-1" connectableBus="BUS-1">
                <iidm:minMaxReactiveLimits minQ="-5.0" maxQ="15.0"/>
                <iidm:voltageRegulation mode="VOLTAGE" regulating="true"/>
            </iidm:generator>
            <iidm:load id="LOAD-1" loadType="UNDEFINED" p0="51.0" q0="27.0" bus="BUS-1" connectableBus="BUS-1"/>
        </iidm:voltageLevel>
    </iidm:substation>
    <iidm:substation id="SUB-2">
        <iidm:voltageLevel id="VL-2" nominalV="1.0" lowVoltageLimit="0.94" highVoltageLimit="1.06" topologyKind="BUS_BREAKER">
            <iidm:busBreakerTopology>
                <iidm:bus id="BUS-2" v="0.971" angle="11.22"/>
            </iidm:busBreakerTopology>
            <iidm:load id="LOAD-2" loadType="UNDEFINED" p0="20.0" q0="9.0" bus="BUS-2" connectableBus="BUS-2"/>
        </iidm:voltageLevel>
    </iidm:substation>
    <iidm:substation id="SUB-3">
        <iidm:voltageLevel id="VL-3" nominalV="1.0" lowVoltageLimit="0.94" highVoltageLimit="1.06" topologyKind="BUS_BREAKER">
            <iidm:busBreakerTopology>
                <iidm:bus id="BUS-3" v="0.968" angle="11.56"/>
            </iidm:busBreakerTopology>
            <iidm:load id="LOAD-3" loadType="UNDEFINED" p0="39.0" q0="10.0" bus="BUS-3" connectableBus="BUS-3"/>
        </iidm:voltageLevel>
    </iidm:substation>
    <iidm:substation id="SUB-4">
        <iidm:voltageLevel id="VL-4" nominalV="1.0" lowVoltageLimit="0.94" highVoltageLimit="1.06" topologyKind="BUS_BREAKER">
            <iidm:busBreakerTopology>
                <iidm:bus id="BUS-4" v="0.998" angle="15.28"/>
            </iidm:busBreakerTopology>
            <iidm:generator id="GEN-4" energySource="OTHER" minP="0.0" maxP="100.0" ratedS="100.0" targetP="0.0" localTargetV="0.998" localTargetQ="0.0" bus="BUS-4" connectableBus="BUS-4">
                <iidm:minMaxReactiveLimits minQ="-300.0" maxQ="300.0"/>
                <iidm:voltageRegulation mode="VOLTAGE" regulating="true"/>
            </iidm:generator>
            <iidm:load id="LOAD-4" loadType="UNDEFINED" p0="39.0" q0="12.0" bus="BUS-4" connectableBus="BUS-4"/>
        </iidm:voltageLevel>
    </iidm:substation>
    <iidm:substation id="SUB-5">
        <iidm:voltageLevel id="VL-5" nominalV="1.0" lowVoltageLimit="0.94" highVoltageLimit="1.06" topologyKind="BUS_BREAKER">
            <iidm:busBreakerTopology>
                <iidm:bus id="BUS-5" v="1.002" angle="15.73"/>
                <iidm:bus id="BUS-8" v="1.015" angle="20.77"/>
            </iidm:busBreakerTopology>
            <iidm:generator id="GEN-8" energySource="OTHER" minP="0.0" maxP="100.0" ratedS="100.0" targetP="0.0" localTargetV="1.015" localTargetQ="0.0" bus="BUS-8" connectableBus="BUS-8">
                <iidm:minMaxReactiveLimits minQ="-300.0" maxQ="300.0"/>
                <iidm:voltageRegulation mode="VOLTAGE" regulating="true"/>
            </iidm:generator>
            <iidm:load id="LOAD-8" loadType="UNDEFINED" p0="28.0" q0="0.0" bus="BUS-8" connectableBus="BUS-8"/>
            <iidm:shuntCompensator id="SHUNT-5" sectionCount="1" bus="BUS-5" connectableBus="BUS-5">
                <iidm:shuntLinearModel bPerSection="-40.0" gPerSection="0.0" maximumSectionCount="1"/>
            </iidm:shuntCompensator>
        </iidm:voltageLevel>
        <iidm:twoWindingsTransformer id="TWT-8-5" r="0.0" x="2.6700000000000004E-4" ratedU1="0.985" ratedU2="1.0" voltageLevelId1="VL-5" bus1="BUS-8" connectableBus1="BUS-8" voltageLevelId2="VL-5" bus2="BUS-5" connectableBus2="BUS-5"/>
    </iidm:substation>
    <iidm:substation id="SUB-6">
        <iidm:voltageLevel id="VL-6" nominalV="1.0" lowVoltageLimit="0.94" highVoltageLimit="1.06" topologyKind="BUS_BREAKER">
            <iidm:busBreakerTopology>
                <iidm:bus id="BUS-6" v="0.99" angle="13.0"/>
            </iidm:busBreakerTopology>
            <iidm:generator id="GEN-6" energySource="OTHER" minP="0.0" maxP="100.0" ratedS="100.0" targetP="0.0" localTargetV="0.99" localTargetQ="0.0" bus="BUS-6" connectableBus="BUS-6">
                <iidm:minMaxReactiveLimits minQ="-13.0" maxQ="50.0"/>
                <iidm:voltageRegulation mode="VOLTAGE" regulating="true"/>
            </iidm:generator>
            <iidm:load id="LOAD-6" loadType="UNDEFINED" p0="52.0" q0="22.0" bus="BUS-6" connectableBus="BUS-6"/>
        </iidm:voltageLevel>
    </iidm:substation>
    <iidm:substation id="SUB-7">
        <iidm:voltageLevel id="VL-7" nominalV="1.0" lowVoltageLimit="0.94" highVoltageLimit="1.06" topologyKind="BUS_BREAKER">
            <iidm:busBreakerTopology>
                <iidm:bus id="BUS-7" v="0.989" angle="12.56"/>
            </iidm:busBreakerTopology>
            <iidm:load id="LOAD-7" loadType="UNDEFINED" p0="19.0" q0="2.0" bus="BUS-7" connectableBus="BUS-7"/>
        </iidm:voltageLevel>
    </iidm:substation>
    <iidm:substation id="SUB-9">
        <iidm:voltageLevel id="VL-9" nominalV="1.0" lowVoltageLimit="0.94" highVoltageLimit="1.06" topologyKind="BUS_BREAKER">
            <iidm:busBreakerTopology>
                <iidm:bus id="BUS-9" v="1.043" angle="28.02"/>
            </iidm:busBreakerTopology>
        </iidm:voltageLevel>
    </iidm:substation>
    <iidm:substation id="SUB-10">
        <iidm:voltageLevel id="VL-10" nominalV="1.0" lowVoltageLimit="0.94" highVoltageLimit="1.06" topologyKind="BUS_BREAKER">
            <iidm:busBreakerTopology>
                <iidm:bus id="BUS-10" v="1.05" angle="35.61"/>
            </iidm:busBreakerTopology>
            <iidm:generator id="GEN-10" energySource="OTHER" minP="0.0" maxP="550.0" ratedS="100.0" targetP="450.0" localTargetV="1.05" localTargetQ="0.0" bus="BUS-10" connectableBus="BUS-10">
                <iidm:minMaxReactiveLimits minQ="-147.0" maxQ="200.0"/>
                <iidm:voltageRegulation mode="VOLTAGE" regulating="true"/>
            </iidm:generator>
        </iidm:voltageLevel>
    </iidm:substation>
    <iidm:substation id="SUB-11">
        <iidm:voltageLevel id="VL-11" nominalV="1.0" lowVoltageLimit="0.94" highVoltageLimit="1.06" topologyKind="BUS_BREAKER">
            <iidm:busBreakerTopology>
                <iidm:bus id="BUS-11" v="0.985" angle="12.72"/>
            </iidm:busBreakerTopology>
            <iidm:load id="LOAD-11" loadType="UNDEFINED" p0="70.0" q0="23.0" bus="BUS-11" connectableBus="BUS-11"/>
        </iidm:voltageLevel>
    </iidm:substation>
    <iidm:substation id="SUB-12">
        <iidm:voltageLevel id="VL-12" nominalV="1.0" lowVoltageLimit="0.94" highVoltageLimit="1.06" topologyKind="BUS_BREAKER">
            <iidm:busBreakerTopology>
                <iidm:bus id="BUS-12" v="0.99" angle="12.2"/>
            </iidm:busBreakerTopology>
            <iidm:generator id="GEN-12" energySource="OTHER" minP="0.0" maxP="185.0" ratedS="100.0" targetP="85.0" localTargetV="0.99" localTargetQ="0.0" bus="BUS-12" connectableBus="BUS-12">
                <iidm:minMaxReactiveLimits minQ="-35.0" maxQ="120.0"/>
                <iidm:voltageRegulation mode="VOLTAGE" regulating="true"/>
            </iidm:generator>
            <iidm:load id="LOAD-12" loadType="UNDEFINED" p0="47.0" q0="10.0" bus="BUS-12" connectableBus="BUS-12"/>
        </iidm:voltageLevel>
    </iidm:substation>
    <iidm:substation id="SUB-13">
        <iidm:voltageLevel id="VL-13" nominalV="1.0" lowVoltageLimit="0.94" highVoltageLimit="1.06" topologyKind="BUS_BREAKER">
            <iidm:busBreakerTopology>
                <iidm:bus id="BUS-13" v="0.968" angle="11.35"/>
            </iidm:busBreakerTopology>
            <iidm:load id="LOAD-13" loadType="UNDEFINED" p0="34.0" q0="16.0" bus="BUS-13" connectableBus="BUS-13"/>
        </iidm:voltageLevel>
    </iidm:substation>
    <iidm:substation id="SUB-14">
        <iidm:voltageLevel id="VL-14" nominalV="1.0" lowVoltageLimit="0.94" highVoltageLimit="1.06" topologyKind="BUS_BREAKER">
            <iidm:busBreakerTopology>
                <iidm:bus id="BUS-14" v="0.984" angle="11.5"/>
            </iidm:busBreakerTopology>
            <iidm:load id="LOAD-14" loadType="UNDEFINED" p0="14.0" q0="1.0" bus="BUS-14" connectableBus="BUS-14"/>
        </iidm:voltageLevel>
    </iidm:substation>
    <iidm:substation id="SUB-15">
        <iidm:voltageLevel id="VL-15" nominalV="1.0" lowVoltageLimit="0.94" highVoltageLimit="1.06" topologyKind="BUS_BREAKER">
            <iidm:busBreakerTopology>
                <iidm:bus id="BUS-15" v="0.97" angle="11.23"/>
            </iidm:busBreakerTopology>
            <iidm:generator id="GEN-15" energySource="OTHER" minP="0.0" maxP="100.0" ratedS="100.0" targetP="0.0" localTargetV="0.97" localTargetQ="0.0" bus="BUS-15" connectableBus="BUS-15">
                <iidm:minMaxReactiveLimits minQ="-10.0" maxQ="30.0"/>
                <iidm:voltageRegulation mode="VOLTAGE" regulating="true"/>
            </iidm:generator>
            <iidm:load id="LOAD-15" loadType="UNDEFINED" p0="90.0" q0="30.0" bus="BUS-15" connectableBus="BUS-15"/>
        </iidm:voltageLevel>
    </iidm:substation>
    <iidm:substation id="SUB-16">
        <iidm:voltageLevel id="VL-16" nominalV="1.0" lowVoltageLimit="0.94" highVoltageLimit="1.06" topologyKind="BUS_BREAKER">
            <iidm:busBreakerTopology>
                <iidm:bus id="BUS-16" v="0.984" angle="11.91"/>
            </iidm:busBreakerTopology>
            <iidm:load id="LOAD-16" loadType="UNDEFINED" p0="25.0" q0="10.0" bus="BUS-16" connectableBus="BUS-16"/>
        </iidm:voltageLevel>
    </iidm:substation>
    <iidm:substation id="SUB-17">
        <iidm:voltageLevel id="VL-17" nominalV="1.0" lowVoltageLimit="0.94" highVoltageLimit="1.06" topologyKind="BUS_BREAKER">
            <iidm:busBreakerTopology>
                <iidm:bus id="BUS-17" v="0.995" angle="13.74"/>
                <iidm:bus id="BUS-30" v="0.968" angle="18.79"/>
            </iidm:busBreakerTopology>
            <iidm:load id="LOAD-17" loadType="UNDEFINED" p0="11.0" q0="3.0" bus="BUS-17" connectableBus="BUS-17"/>
        </iidm:voltageLevel>
        <iidm:twoWindingsTransformer id="TWT-30-17" r="0.0" x="3.88E-4" ratedU1="0.96" ratedU2="1.0" voltageLevelId1="VL-17" bus1="BUS-30" connectableBus1="BUS-30" voltageLevelId2="VL-17" bus2="BUS-17" connectableBus2="BUS-17"/>
    </iidm:substation>
    <iidm:substation id="SUB-18">
        <iidm:voltageLevel id="VL-18" nominalV="1.0" lowVoltageLimit="0.94" highVoltageLimit="1.06" topologyKind="BUS_BREAKER">
            <iidm:busBreakerTopology>
                <iidm:bus id="BUS-18" v="0.973" angle="11.53"/>
            </iidm:busBreakerTopology>
            <iidm:generator id="GEN-18" energySource="OTHER" minP="0.0" maxP="100.0" ratedS="100.0" targetP="0.0" localTargetV="0.973" localTargetQ="0.0" bus="BUS-18" connectableBus="BUS-18">
                <iidm:minMaxReactiveLimits minQ="-16.0" maxQ="50.0"/>
                <iidm:voltageRegulation mode="VOLTAGE" regulating="true"/>
            </iidm:generator>
            <iidm:load id="LOAD-18" loadType="UNDEFINED" p0="60.0" q0="34.0" bus="BUS-18" connectableBus="BUS-18"/>
        </iidm:voltageLevel>
    </iidm:substation>
    <iidm:substation id="SUB-19">
        <iidm:voltageLevel id="VL-19" nominalV="1.0" lowVoltageLimit="0.94" highVoltageLimit="1.06" topologyKind="BUS_BREAKER">
            <iidm:busBreakerTopology>
                <iidm:bus id="BUS-19" v="0.963" angle="11.05"/>
            </iidm:busBreakerTopology>
            <iidm:generator id="GEN-19" energySource="OTHER" minP="0.0" maxP="100.0" ratedS="100.0" targetP="0.0" localTargetV="0.962" localTargetQ="0.0" bus="BUS-19" connectableBus="BUS-19">
                <iidm:minMaxReactiveLimits minQ="-8.0" maxQ="24.0"/>
                <iidm:voltageRegulation mode="VOLTAGE" regulating="true"/>
            </iidm:generator>
            <iidm:load id="LOAD-19" loadType="UNDEFINED" p0="45.0" q0="25.0" bus="BUS-19" connectableBus="BUS-19"/>
        </iidm:voltageLevel>
    </iidm:substation>
    <iidm:substation id="SUB-20">
        <iidm:voltageLevel id="VL-20" nominalV="1.0" lowVoltageLimit="0.94" highVoltageLimit="1.06" topologyKind="BUS_BREAKER">
            <iidm:busBreakerTopology>
                <iidm:bus id="BUS-20" v="0.958" angle="11.93"/>
            </iidm:busBreakerTopology>
            <iidm:load id="LOAD-20" loadType="UNDEFINED" p0="18.0" q0="3.0" bus="BUS-20" connectableBus="BUS-20"/>
        </iidm:voltageLevel>
    </iidm:substation>
    <iidm:substation id="SUB-21">
        <iidm:voltageLevel id="VL-21" nominalV="1.0" lowVoltageLimit="0.94" highVoltageLimit="1.06" topologyKind="BUS_BREAKER">
            <iidm:busBreakerTopology>
                <iidm:bus id="BUS-21" v="0.959" angle="13.52"/>
            </iidm:busBreakerTopology>
            <iidm:load id="LOAD-21" loadType="UNDEFINED" p0="14.0" q0="8.0" bus="BUS-21" connectableBus="BUS-21"/>
        </iidm:voltageLevel>
    </iidm:substation>
    <iidm:substation id="SUB-22">
        <iidm:voltageLevel id="VL-22" nominalV="1.0" lowVoltageLimit="0.94" highVoltageLimit="1.06" topologyKind="BUS_BREAKER">
            <iidm:busBreakerTopology>
                <iidm:bus id="BUS-22" v="0.97" angle="16.08"/>
            </iidm:busBreakerTopology>
            <iidm:load id="LOAD-22" loadType="UNDEFINED" p0="10.0" q0="5.0" bus="BUS-22" connectableBus="BUS-22"/>
        </iidm:voltageLevel>
    </iidm:substation>
    <iidm:substation id="SUB-23">
        <iidm:voltageLevel id="VL-23" nominalV="1.0" lowVoltageLimit="0.94" highVoltageLimit="1.06" topologyKind="BUS_BREAKER">
            <iidm:busBreakerTopology>
                <iidm:bus id="BUS-23" v="1.0" angle="21.0"/>
            </iidm:busBreakerTopology>
            <iidm:load id="LOAD-23" loadType="UNDEFINED" p0="7.0" q0="3.0" bus="BUS-23" connectableBus="BUS-23"/>
        </iidm:voltageLevel>
    </iidm:substation>
    <iidm:substation id="SUB-24">
        <iidm:voltageLevel id="VL-24" nominalV="1.0" lowVoltageLimit="0.94" highVoltageLimit="1.06" topologyKind="BUS_BREAKER">
            <iidm:busBreakerTopology>
                <iidm:bus id="BUS-24" v="0.992" angle="20.89"/>
            </iidm:busBreakerTopology>
            <iidm:generator id="GEN-24" energySource="OTHER" minP="0.0" maxP="100.0" ratedS="100.0" targetP="0.0" localTargetV="0.992" localTargetQ="0.0" bus="BUS-24" connectableBus="BUS-24">
                <iidm:minMaxReactiveLimits minQ="-300.0" maxQ="300.0"/>
                <iidm:voltageRegulation mode="VOLTAGE" regulating="true"/>
            </iidm:generator>
            <iidm:load id="LOAD-24" loadType="UNDEFINED" p0="13.0" q0="0.0" bus="BUS-24" connectableBus="BUS-24"/>
        </iidm:voltageLevel>
    </iidm:substation>
    <iidm:substation id="SUB-25">
        <iidm:voltageLevel id="VL-25" nominalV="1.0" lowVoltageLimit="0.94" highVoltageLimit="1.06" topologyKind="BUS_BREAKER">
            <iidm:busBreakerTopology>
                <iidm:bus id="BUS-25" v="1.05" angle="27.93"/>
                <iidm:bus id="BUS-26" v="1.015" angle="29.71"/>
            </iidm:busBreakerTopology>
            <iidm:generator id="GEN-25" energySource="OTHER" minP="0.0" maxP="320.0" ratedS="100.0" targetP="220.0" localTargetV="1.05" localTargetQ="0.0" bus="BUS-25" connectableBus="BUS-25">
                <iidm:minMaxReactiveLimits minQ="-47.0" maxQ="140.0"/>
                <iidm:voltageRegulation mode="VOLTAGE" regulating="true"/>
            </iidm:generator>
            <iidm:generator id="GEN-26" energySource="OTHER" minP="0.0" maxP="414.0" ratedS="100.0" targetP="314.0" localTargetV="1.015" localTargetQ="0.0" bus="BUS-26" connectableBus="BUS-26">
                <iidm:minMaxReactiveLimits minQ="-1000.0" maxQ="1000.0"/>
                <iidm:voltageRegulation mode="VOLTAGE" regulating="true"/>
            </iidm:generator>
        </iidm:voltageLevel>
        <iidm:twoWindingsTransformer id="TWT-26-25" r="0.0" x="3.8199999999999996E-4" ratedU1="0.96" ratedU2="1.0" voltageLevelId1="VL-25" bus1="BUS-26" connectableBus1="BUS-26" voltageLevelId2="VL-25" bus2="BUS-25" connectableBus2="BUS-25"/>
    </iidm:substation>
    <iidm:substation id="SUB-27">
        <iidm:voltageLevel id="VL-27" nominalV="1.0" lowVoltageLimit="0.94" highVoltageLimit="1.06" topologyKind="BUS_BREAKER">
            <iidm:busBreakerTopology>
                <iidm:bus id="BUS-27" v="0.968" angle="15.35"/>
            </iidm:busBreakerTopology>
            <iidm:generator id="GEN-27" energySource="OTHER" minP="0.0" maxP="100.0" ratedS="100.0" targetP="0.0" localTargetV="0.968" localTargetQ="0.0" bus="BUS-27" connectableBus="BUS-27">
                <iidm:minMaxReactiveLimits minQ="-300.0" maxQ="300.0"/>
                <iidm:voltageRegulation mode="VOLTAGE" regulating="true"/>
            </iidm:generator>
            <iidm:load id="LOAD-27" loadType="UNDEFINED" p0="71.0" q0="13.0" bus="BUS-27" connectableBus="BUS-27"/>
        </iidm:voltageLevel>
    </iidm:substation>
    <iidm:substation id="SUB-28">
        <iidm:voltageLevel id="VL-28" nominalV="1.0" lowVoltageLimit="0.94" highVoltageLimit="1.06" topologyKind="BUS_BREAKER">
            <iidm:busBreakerTopology>
                <iidm:bus id="BUS-28" v="0.962" angle="13.62"/>
            </iidm:busBreakerTopology>
            <iidm:load id="LOAD-28" loadType="UNDEFINED" p0="17.0" q0="7.0" bus="BUS-28" connectableBus="BUS-28"/>
        </iidm:voltageLevel>
    </iidm:substation>
    <iidm:substation id="SUB-29">
        <iidm:voltageLevel id="VL-29" nominalV="1.0" lowVoltageLimit="0.94" highVoltageLimit="1.06" topologyKind="BUS_BREAKER">
            <iidm:busBreakerTopology>
                <iidm:bus id="BUS-29" v="0.963" angle="12.63"/>
            </iidm:busBreakerTopology>
            <iidm:load id="LOAD-29" loadType="UNDEFINED" p0="24.0" q0="4.0" bus="BUS-29" connectableBus="BUS-29"/>
        </iidm:voltageLevel>
    </iidm:substation>
    <iidm:substation id="SUB-31">
        <iidm:voltageLevel id="VL-31" nominalV="1.0" lowVoltageLimit="0.94" highVoltageLimit="1.06" topologyKind="BUS_BREAKER">
            <iidm:busBreakerTopology>
                <iidm:bus id="BUS-31" v="0.967" angle="12.75"/>
            </iidm:busBreakerTopology>
            <iidm:generator id="GEN-31" energySource="OTHER" minP="0.0" maxP="107.0" ratedS="100.0" targetP="7.0" localTargetV="0.967" localTargetQ="0.0" bus="BUS-31" connectableBus="BUS-31">
                <iidm:minMaxReactiveLimits minQ="-300.0" maxQ="300.0"/>
                <iidm:voltageRegulation mode="VOLTAGE" regulating="true"/>
            </iidm:generator>
            <iidm:load id="LOAD-31" loadType="UNDEFINED" p0="43.0" q0="27.0" bus="BUS-31" connectableBus="BUS-31"/>
        </iidm:voltageLevel>
    </iidm:substation>
    <iidm:substation id="SUB-32">
        <iidm:voltageLevel id="VL-32" nominalV="1.0" lowVoltageLimit="0.94" highVoltageLimit="1.06" topologyKind="BUS_BREAKER">
            <iidm:busBreakerTopology>
                <iidm:bus id="BUS-32" v="0.964" angle="14.8"/>
            </iidm:busBreakerTopology>
            <iidm:generator id="GEN-32" energySource="OTHER" minP="0.0" maxP="100.0" ratedS="100.0" targetP="0.0" localTargetV="0.963" localTargetQ="0.0" bus="BUS-32" connectableBus="BUS-32">
                <iidm:minMaxReactiveLimits minQ="-14.0" maxQ="42.0"/>
                <iidm:voltageRegulation mode="VOLTAGE" regulating="true"/>
            </iidm:generator>
            <iidm:load id="LOAD-32" loadType="UNDEFINED" p0="59.0" q0="23.0" bus="BUS-32" connectableBus="BUS-32"/>
        </iidm:voltageLevel>
    </iidm:substation>
    <iidm:substation id="SUB-33">
        <iidm:voltageLevel id="VL-33" nominalV="1.0" lowVoltageLimit="0.94" highVoltageLimit="1.06" topologyKind="BUS_BREAKER">
            <iidm:busBreakerTopology>
                <iidm:bus id="BUS-33" v="0.972" angle="10.63"/>
            </iidm:busBreakerTopology>
            <iidm:load id="LOAD-33" loadType="UNDEFINED" p0="23.0" q0="9.0" bus="BUS-33" connectableBus="BUS-33"/>
        </iidm:voltageLevel>
    </iidm:substation>
    <iidm:substation id="SUB-34">
        <iidm:voltageLevel id="VL-34" nominalV="1.0" lowVoltageLimit="0.94" highVoltageLimit="1.06" topologyKind="BUS_BREAKER">
            <iidm:busBreakerTopology>
                <iidm:bus id="BUS-34" v="0.986" angle="11.3"/>
            </iidm:busBreakerTopology>
            <iidm:generator id="GEN-34" energySource="OTHER" minP="0.0" maxP="100.0" ratedS="100.0" targetP="0.0" localTargetV="0.984" localTargetQ="0.0" bus="BUS-34" connectableBus="BUS-34">
                <iidm:minMaxReactiveLimits minQ="-8.0" maxQ="24.0"/>
                <iidm:voltageRegulation mode="VOLTAGE" regulating="true"/>
            </iidm:generator>
            <iidm:load id="LOAD-34" loadType="UNDEFINED" p0="59.0" q0="26.0" bus="BUS-34" connectableBus="BUS-34"/>
            <iidm:shuntCompensator id="SHUNT-34" sectionCount="1" bus="BUS-34" connectableBus="BUS-34">
                <iidm:shuntLinearModel bPerSection="14.000000000000002" gPerSection="0.0" maximumSectionCount="1"/>
            </iidm:shuntCompensator>
        </iidm:voltageLevel>
    </iidm:substation>
    <iidm:substation id="SUB-35">
        <iidm:voltageLevel id="VL-35" nominalV="1.0" lowVoltageLimit="0.94" highVoltageLimit="1.06" topologyKind="BUS_BREAKER">
            <iidm:busBreakerTopology>
                <iidm:bus id="BUS-35" v="0.981" angle="10.87"/>
            </iidm:busBreakerTopology>
            <iidm:load id="LOAD-35" loadType="UNDEFINED" p0="33.0" q0="9.0" bus="BUS-35" connectableBus="BUS-35"/>
        </iidm:voltageLevel>
    </iidm:substation>
    <iidm:substation id="SUB-36">
        <iidm:voltageLevel id="VL-36" nominalV="1.0" lowVoltageLimit="0.94" highVoltageLimit="1.06" topologyKind="BUS_BREAKER">
            <iidm:busBreakerTopology>
                <iidm:bus id="BUS-36" v="0.98" angle="10.87"/>
            </iidm:busBreakerTopology>
            <iidm:generator id="GEN-36" energySource="OTHER" minP="0.0" maxP="100.0" ratedS="100.0" targetP="0.0" localTargetV="0.98" localTargetQ="0.0" bus="BUS-36" connectableBus="BUS-36">
                <iidm:minMaxReactiveLimits minQ="-8.0" maxQ="24.0"/>
                <iidm:voltageRegulation mode="VOLTAGE" regulating="true"/>
            </iidm:generator>
            <iidm:load id="LOAD-36" loadType="UNDEFINED" p0="31.0" q0="17.0" bus="BUS-36" connectableBus="BUS-36"/>
        </iidm:voltageLevel>
    </iidm:substation>
    <iidm:substation id="SUB-37">
        <iidm:voltageLevel id="VL-37" nominalV="1.0" lowVoltageLimit="0.94" highVoltageLimit="1.06" topologyKind="BUS_BREAKER">
            <iidm:busBreakerTopology>
                <iidm:bus id="BUS-37" v="0.992" angle="11.77"/>
                <iidm:bus id="BUS-38" v="0.962" angle="16.91"/>
            </iidm:busBreakerTopology>
            <iidm:shuntCompensator id="SHUNT-37" sectionCount="1" bus="BUS-37" connectableBus="BUS-37">
                <iidm:shuntLinearModel bPerSection="-25.0" gPerSection="0.0" maximumSectionCount="1"/>
            </iidm:shuntCompensator>
        </iidm:voltageLevel>
        <iidm:twoWindingsTransformer id="TWT-38-37" r="0.0" x="3.75E-4" ratedU1="0.935" ratedU2="1.0" voltageLevelId1="VL-37" bus1="BUS-38" connectableBus1="BUS-38" voltageLevelId2="VL-37" bus2="BUS-37" connectableBus2="BUS-37"/>
    </iidm:substation>
    <iidm:substation id="SUB-39">
        <iidm:voltageLevel id="VL-39" nominalV="1.0" lowVoltageLimit="0.94" highVoltageLimit="1.06" topologyKind="BUS_BREAKER">
            <iidm:busBreakerTopology>
                <iidm:bus id="BUS-39" v="0.97" angle="8.41"/>
            </iidm:busBreakerTopology>
            <iidm:load id="LOAD-39" loadType="UNDEFINED" p0="27.0" q0="11.0" bus="BUS-39" connectableBus="BUS-39"/>
        </iidm:voltageLevel>
    </iidm:substation>
    <iidm:substation id="SUB-40">
        <iidm:voltageLevel id="VL-40" nominalV="1.0" lowVoltageLimit="0.94" highVoltageLimit="1.06" topologyKind="BUS_BREAKER">
            <iidm:busBreakerTopology>
                <iidm:bus id="BUS-40" v="0.97" angle="7.35"/>
            </iidm:busBreakerTopology>
            <iidm:generator id="GEN-40" energySource="OTHER" minP="0.0" maxP="100.0" ratedS="100.0" targetP="0.0" localTargetV="0.97" localTargetQ="0.0" bus="BUS-40" connectableBus="BUS-40">
                <iidm:minMaxReactiveLimits minQ="-300.0" maxQ="300.0"/>
                <iidm:voltageRegulation mode="VOLTAGE" regulating="true"/>
            </iidm:generator>
            <iidm:load id="LOAD-40" loadType="UNDEFINED" p0="66.0" q0="23.0" bus="BUS-40" connectableBus="BUS-40"/>
        </iidm:voltageLevel>
    </iidm:substation>
    <iidm:substation id="SUB-41">
        <iidm:voltageLevel id="VL-41" nominalV="1.0" lowVoltageLimit="0.94" highVoltageLimit="1.06" topologyKind="BUS_BREAKER">
            <iidm:busBreakerTopology>
                <iidm:bus id="BUS-41" v="0.967" angle="6.92"/>
            </iidm:busBreakerTopology>
            <iidm:load id="LOAD-41" loadType="UNDEFINED" p0="37.0" q0="10.0" bus="BUS-41" connectableBus="BUS-41"/>
        </iidm:voltageLevel>
    </iidm:substation>
    <iidm:substation id="SUB-42">
        <iidm:voltageLevel id="VL-42" nominalV="1.0" lowVoltageLimit="0.94" highVoltageLimit="1.06" topologyKind="BUS_BREAKER">
            <iidm:busBreakerTopology>
                <iidm:bus id="BUS-42" v="0.985" angle="8.53"/>
            </iidm:busBreakerTopology>
            <iidm:generator id="GEN-42" energySource="OTHER" minP="0.0" maxP="100.0" ratedS="100.0" targetP="0.0" localTargetV="0.985" localTargetQ="0.0" bus="BUS-42" connectableBus="BUS-42">
                <iidm:minMaxReactiveLimits minQ="-300.0" maxQ="300.0"/>
                <iidm:voltageRegulation mode="VOLTAGE" regulating="true"/>
            </iidm:generator>
            <iidm:load id="LOAD-42" loadType="UNDEFINED" p0="96.0" q0="23.0" bus="BUS-42" connectableBus="BUS-42"/>
        </iidm:voltageLevel>
    </iidm:substation>
    <iidm:substation id="SUB-43">
        <iidm:voltageLevel id="VL-43" nominalV="1.0" lowVoltageLimit="0.94" highVoltageLimit="1.06" topologyKind="BUS_BREAKER">
            <iidm:busBreakerTopology>
                <iidm:bus id="BUS-43" v="0.978" angle="11.28"/>
            </iidm:busBreakerTopology>
            <iidm:load id="LOAD-43" loadType="UNDEFINED" p0="18.0" q0="7.0" bus="BUS-43" connectableBus="BUS-43"/>
        </iidm:voltageLevel>
    </iidm:substation>
    <iidm:substation id="SUB-44">
        <iidm:voltageLevel id="VL-44" nominalV="1.0" lowVoltageLimit="0.94" highVoltageLimit="1.06" topologyKind="BUS_BREAKER">
            <iidm:busBreakerTopology>
                <iidm:bus id="BUS-44" v="0.985" angle="13.82"/>
            </iidm:busBreakerTopology>
            <iidm:load id="LOAD-44" loadType="UNDEFINED" p0="16.0" q0="8.0" bus="BUS-44" connectableBus="BUS-44"/>
            <iidm:shuntCompensator id="SHUNT-44" sectionCount="1" bus="BUS-44" connectableBus="BUS-44">
                <iidm:shuntLinearModel bPerSection="10.0" gPerSection="0.0" maximumSectionCount="1"/>
            </iidm:shuntCompensator>
        </iidm:voltageLevel>
    </iidm:substation>
    <iidm:substation id="SUB-45">
        <iidm:voltageLevel id="VL-45" nominalV="1.0" lowVoltageLimit="0.94" highVoltageLimit="1.06" topologyKind="BUS_BREAKER">
            <iidm:busBreakerTopology>
                <iidm:bus id="BUS-45" v="0.987" angle="15.67"/>
            </iidm:busBreakerTopology>
            <iidm:load id="LOAD-45" loadType="UNDEFINED" p0="53.0" q0="22.0" bus="BUS-45" connectableBus="BUS-45"/>
            <iidm:shuntCompensator id="SHUNT-45" sectionCount="1" bus="BUS-45" connectableBus="BUS-45">
                <iidm:shuntLinearModel bPerSection="10.0" gPerSection="0.0" maximumSectionCount="1"/>
            </iidm:shuntCompensator>
        </iidm:voltageLevel>
    </iidm:substation>
    <iidm:substation id="SUB-46">
        <iidm:voltageLevel id="VL-46" nominalV="1.0" lowVoltageLimit="0.94" highVoltageLimit="1.06" topologyKind="BUS_BREAKER">
            <iidm:busBreakerTopology>
                <iidm:bus id="BUS-46" v="1.005" angle="18.49"/>
            </iidm:busBreakerTopology>
            <iidm:generator id="GEN-46" energySource="OTHER" minP="0.0" maxP="119.0" ratedS="100.0" targetP="19.0" localTargetV="1.005" localTargetQ="0.0" bus="BUS-46" connectableBus="BUS-46">
                <iidm:minMaxReactiveLimits minQ="-100.0" maxQ="100.0"/>
                <iidm:voltageRegulation mode="VOLTAGE" regulating="true"/>
            </iidm:generator>
            <iidm:load id="LOAD-46" loadType="UNDEFINED" p0="28.0" q0="10.0" bus="BUS-46" connectableBus="BUS-46"/>
            <iidm:shuntCompensator id="SHUNT-46" sectionCount="1" bus="BUS-46" connectableBus="BUS-46">
                <iidm:shuntLinearModel bPerSection="10.0" gPerSection="0.0" maximumSectionCount="1"/>
            </iidm:shuntCompensator>
        </iidm:voltageLevel>
    </iidm:substation>
    <iidm:substation id="SUB-47">
        <iidm:voltageLevel id="VL-47" nominalV="1.0" lowVoltageLimit="0.94" highVoltageLimit="1.06" topologyKind="BUS_BREAKER">
            <iidm:busBreakerTopology>
                <iidm:bus id="BUS-47" v="1.017" angle="20.73"/>
            </iidm:busBreakerTopology>
            <iidm:load id="LOAD-47" loadType="UNDEFINED" p0="34.0" q0="0.0" bus="BUS-47" connectableBus="BUS-47"/>
        </iidm:voltageLevel>
    </iidm:substation>
    <iidm:substation id="SUB-48">
        <iidm:voltageLevel id="VL-48" nominalV="1.0" lowVoltageLimit="0.94" highVoltageLimit="1.06" topologyKind="BUS_BREAKER">
            <iidm:busBreakerTopology>
                <iidm:bus id="BUS-48" v="1.021" angle="19.93"/>
            </iidm:busBreakerTopology>
            <iidm:load id="LOAD-48" loadType="UNDEFINED" p0="20.0" q0="11.0" bus="BUS-48" connectableBus="BUS-48"/>
            <iidm:shuntCompensator id="SHUNT-48" sectionCount="1" bus="BUS-48" connectableBus="BUS-48">
                <iidm:shuntLinearModel bPerSection="15.0" gPerSection="0.0" maximumSectionCount="1"/>
            </iidm:shuntCompensator>
        </iidm:voltageLevel>
    </iidm:substation>
    <iidm:substation id="SUB-49">
        <iidm:voltageLevel id="VL-49" nominalV="1.0" lowVoltageLimit="0.94" highVoltageLimit="1.06" topologyKind="BUS_BREAKER">
            <iidm:busBreakerTopology>
                <iidm:bus id="BUS-49" v="1.025" angle="20.94"/>
            </iidm:busBreakerTopology>
            <iidm:generator id="GEN-49" energySource="OTHER" minP="0.0" maxP="304.0" ratedS="100.0" targetP="204.0" localTargetV="1.025" localTargetQ="0.0" bus="BUS-49" connectableBus="BUS-49">
                <iidm:minMaxReactiveLimits minQ="-85.0" maxQ="210.0"/>
                <iidm:voltageRegulation mode="VOLTAGE" regulating="true"/>
            </iidm:generator>
            <iidm:load id="LOAD-49" loadType="UNDEFINED" p0="87.0" q0="30.0" bus="BUS-49" connectableBus="BUS-49"/>
        </iidm:voltageLevel>
    </iidm:substation>
    <iidm:substation id="SUB-50">
        <iidm:voltageLevel id="VL-50" nominalV="1.0" lowVoltageLimit="0.94" highVoltageLimit="1.06" topologyKind="BUS_BREAKER">
            <iidm:busBreakerTopology>
                <iidm:bus id="BUS-50" v="1.001" angle="18.9"/>
            </iidm:busBreakerTopology>
            <iidm:load id="LOAD-50" loadType="UNDEFINED" p0="17.0" q0="4.0" bus="BUS-50" connectableBus="BUS-50"/>
        </iidm:voltageLevel>
    </iidm:substation>
    <iidm:substation id="SUB-51">
        <iidm:voltageLevel id="VL-51" nominalV="1.0" lowVoltageLimit="0.94" highVoltageLimit="1.06" topologyKind="BUS_BREAKER">
            <iidm:busBreakerTopology>
                <iidm:bus id="BUS-51" v="0.967" angle="16.28"/>
            </iidm:busBreakerTopology>
            <iidm:load id="LOAD-51" loadType="UNDEFINED" p0="17.0" q0="8.0" bus="BUS-51" connectableBus="BUS-51"/>
        </iidm:voltageLevel>
    </iidm:substation>
    <iidm:substation id="SUB-52">
        <iidm:voltageLevel id="VL-52" nominalV="1.0" lowVoltageLimit="0.94" highVoltageLimit="1.06" topologyKind="BUS_BREAKER">
            <iidm:busBreakerTopology>
                <iidm:bus id="BUS-52" v="0.957" angle="15.32"/>
            </iidm:busBreakerTopology>
            <iidm:load id="LOAD-52" loadType="UNDEFINED" p0="18.0" q0="5.0" bus="BUS-52" connectableBus="BUS-52"/>
        </iidm:voltageLevel>
    </iidm:substation>
    <iidm:substation id="SUB-53">
        <iidm:voltageLevel id="VL-53" nominalV="1.0" lowVoltageLimit="0.94" highVoltageLimit="1.06" topologyKind="BUS_BREAKER">
            <iidm:busBreakerTopology>
                <iidm:bus id="BUS-53" v="0.946" angle="14.35"/>
            </iidm:busBreakerTopology>
            <iidm:load id="LOAD-53" loadType="UNDEFINED" p0="23.0" q0="11.0" bus="BUS-53" connectableBus="BUS-53"/>
        </iidm:voltageLevel>
    </iidm:substation>
    <iidm:substation id="SUB-54">
        <iidm:voltageLevel id="VL-54" nominalV="1.0" lowVoltageLimit="0.94" highVoltageLimit="1.06" topologyKind="BUS_BREAKER">
            <iidm:busBreakerTopology>
                <iidm:bus id="BUS-54" v="0.955" angle="15.26"/>
            </iidm:busBreakerTopology>
            <iidm:generator id="GEN-54" energySource="OTHER" minP="0.0" maxP="148.0" ratedS="100.0" targetP="48.0" localTargetV="0.955" localTargetQ="0.0" bus="BUS-54" connectableBus="BUS-54">
                <iidm:minMaxReactiveLimits minQ="-300.0" maxQ="300.0"/>
                <iidm:voltageRegulation mode="VOLTAGE" regulating="true"/>
            </iidm:generator>
            <iidm:load id="LOAD-54" loadType="UNDEFINED" p0="113.0" q0="32.0" bus="BUS-54" connectableBus="BUS-54"/>
        </iidm:voltageLevel>
    </iidm:substation>
    <iidm:substation id="SUB-55">
        <iidm:voltageLevel id="VL-55" nominalV="1.0" lowVoltageLimit="0.94" highVoltageLimit="1.06" topologyKind="BUS_BREAKER">
            <iidm:busBreakerTopology>
                <iidm:bus id="BUS-55" v="0.952" angle="14.97"/>
            </iidm:busBreakerTopology>
            <iidm:generator id="GEN-55" energySource="OTHER" minP="0.0" maxP="100.0" ratedS="100.0" targetP="0.0" localTargetV="0.952" localTargetQ="0.0" bus="BUS-55" connectableBus="BUS-55">
                <iidm:minMaxReactiveLimits minQ="-8.0" maxQ="23.0"/>
                <iidm:voltageRegulation mode="VOLTAGE" regulating="true"/>
            </iidm:generator>
            <iidm:load id="LOAD-55" loadType="UNDEFINED" p0="63.0" q0="22.0" bus="BUS-55" connectableBus="BUS-55"/>
        </iidm:voltageLevel>
    </iidm:substation>
    <iidm:substation id="SUB-56">
        <iidm:voltageLevel id="VL-56" nominalV="1.0" lowVoltageLimit="0.94" highVoltageLimit="1.06" topologyKind="BUS_BREAKER">
            <iidm:busBreakerTopology>
                <iidm:bus id="BUS-56" v="0.954" angle="15.16"/>
            </iidm:busBreakerTopology>
            <iidm:generator id="GEN-56" energySource="OTHER" minP="0.0" maxP="100.0" ratedS="100.0" targetP="0.0" localTargetV="0.954" localTargetQ="0.0" bus="BUS-56" connectableBus="BUS-56">
                <iidm:minMaxReactiveLimits minQ="-8.0" maxQ="15.0"/>
                <iidm:voltageRegulation mode="VOLTAGE" regulating="true"/>
            </iidm:generator>
            <iidm:load id="LOAD-56" loadType="UNDEFINED" p0="84.0" q0="18.0" bus="BUS-56" connectableBus="BUS-56"/>
        </iidm:voltageLevel>
    </iidm:substation>
    <iidm:substation id="SUB-57">
        <iidm:voltageLevel id="VL-57" nominalV="1.0" lowVoltageLimit="0.94" highVoltageLimit="1.06" topologyKind="BUS_BREAKER">
            <iidm:busBreakerTopology>
                <iidm:bus id="BUS-57" v="0.971" angle="16.36"/>
            </iidm:busBreakerTopology>
            <iidm:load id="LOAD-57" loadType="UNDEFINED" p0="12.0" q0="3.0" bus="BUS-57" connectableBus="BUS-57"/>
        </iidm:voltageLevel>
    </iidm:substation>
    <iidm:substation id="SUB-58">
        <iidm:voltageLevel id="VL-58" nominalV="1.0" lowVoltageLimit="0.94" highVoltageLimit="1.06" topologyKind="BUS_BREAKER">
            <iidm:busBreakerTopology>
                <iidm:bus id="BUS-58" v="0.959" angle="15.51"/>
            </iidm:busBreakerTopology>
            <iidm:load id="LOAD-58" loadType="UNDEFINED" p0="12.0" q0="3.0" bus="BUS-58" connectableBus="BUS-58"/>
        </iidm:voltageLevel>
    </iidm:substation>
    <iidm:substation id="SUB-59">
        <iidm:voltageLevel id="VL-59" nominalV="1.0" lowVoltageLimit="0.94" highVoltageLimit="1.06" topologyKind="BUS_BREAKER">
            <iidm:busBreakerTopology>
                <iidm:bus id="BUS-59" v="0.985" angle="19.37"/>
                <iidm:bus id="BUS-63" v="0.969" angle="22.75"/>
            </iidm:busBreakerTopology>
            <iidm:generator id="GEN-59" energySource="OTHER" minP="0.0" maxP="255.0" ratedS="100.0" targetP="155.0" localTargetV="0.985" localTargetQ="0.0" bus="BUS-59" connectableBus="BUS-59">
                <iidm:minMaxReactiveLimits minQ="-60.0" maxQ="180.0"/>
                <iidm:voltageRegulation mode="VOLTAGE" regulating="true"/>
            </iidm:generator>
            <iidm:load id="LOAD-59" loadType="UNDEFINED" p0="277.0" q0="113.0" bus="BUS-59" connectableBus="BUS-59"/>
        </iidm:voltageLevel>
        <iidm:twoWindingsTransformer id="TWT-63-59" r="0.0" x="3.8600000000000006E-4" ratedU1="0.96" ratedU2="1.0" voltageLevelId1="VL-59" bus1="BUS-63" connectableBus1="BUS-63" voltageLevelId2="VL-59" bus2="BUS-59" connectableBus2="BUS-59"/>
    </iidm:substation>
    <iidm:substation id="SUB-60">
        <iidm:voltageLevel id="VL-60" nominalV="1.0" lowVoltageLimit="0.94" highVoltageLimit="1.06" topologyKind="BUS_BREAKER">
            <iidm:busBreakerTopology>
                <iidm:bus id="BUS-60" v="0.993" angle="23.15"/>
            </iidm:busBreakerTopology>
            <iidm:load id="LOAD-60" loadType="UNDEFINED" p0="78.0" q0="3.0" bus="BUS-60" connectableBus="BUS-60"/>
        </iidm:voltageLevel>
    </iidm:substation>
    <iidm:substation id="SUB-61">
        <iidm:voltageLevel id="VL-61" nominalV="1.0" lowVoltageLimit="0.94" highVoltageLimit="1.06" topologyKind="BUS_BREAKER">
            <iidm:busBreakerTopology>
                <iidm:bus id="BUS-61" v="0.995" angle="24.04"/>
                <iidm:bus id="BUS-64" v="0.984" angle="24.52"/>
            </iidm:busBreakerTopology>
            <iidm:generator id="GEN-61" energySource="OTHER" minP="0.0" maxP="260.0" ratedS="100.0" targetP="160.0" localTargetV="0.995" localTargetQ="0.0" bus="BUS-61" connectableBus="BUS-61">
                <iidm:minMaxReactiveLimits minQ="-100.0" maxQ="300.0"/>
                <iidm:voltageRegulation mode="VOLTAGE" regulating="true"/>
            </iidm:generator>
        </iidm:voltageLevel>
        <iidm:twoWindingsTransformer id="TWT-64-61" r="0.0" x="2.68E-4" ratedU1="0.985" ratedU2="1.0" voltageLevelId1="VL-61" bus1="BUS-64" connectableBus1="BUS-64" voltageLevelId2="VL-61" bus2="BUS-61" connectableBus2="BUS-61"/>
    </iidm:substation>
    <iidm:substation id="SUB-62">
        <iidm:voltageLevel id="VL-62" nominalV="1.0" lowVoltageLimit="0.94" highVoltageLimit="1.06" topologyKind="BUS_BREAKER">
            <iidm:busBreakerTopology>
                <iidm:bus id="BUS-62" v="0.998" angle="23.43"/>
            </iidm:busBreakerTopology>
            <iidm:generator id="GEN-62" energySource="OTHER" minP="0.0" maxP="100.0" ratedS="100.0" targetP="0.0" localTargetV="0.998" localTargetQ="0.0" bus="BUS-62" connectableBus="BUS-62">
                <iidm:minMaxReactiveLimits minQ="-20.0" maxQ="20.0"/>
                <iidm:voltageRegulation mode="VOLTAGE" regulating="true"/>
            </iidm:generator>
            <iidm:load id="LOAD-62" loadType="UNDEFINED" p0="77.0" q0="14.0" bus="BUS-62" connectableBus="BUS-62"/>
        </iidm:voltageLevel>
    </iidm:substation>
    <iidm:substation id="SUB-65">
        <iidm:voltageLevel id="VL-65" nominalV="1.0" lowVoltageLimit="0.94" highVoltageLimit="1.06" topologyKind="BUS_BREAKER">
            <iidm:busBreakerTopology>
                <iidm:bus id="BUS-65" v="1.005" angle="27.65"/>
                <iidm:bus id="BUS-66" v="1.05" angle="27.48"/>
            </iidm:busBreakerTopology>
            <iidm:generator id="GEN-65" energySource="OTHER" minP="0.0" maxP="491.0" ratedS="100.0" targetP="391.0" localTargetV="1.005" localTargetQ="0.0" bus="BUS-65" connectableBus="BUS-65">
                <iidm:minMaxReactiveLimits minQ="-67.0" maxQ="200.0"/>
                <iidm:voltageRegulation mode="VOLTAGE" regulating="true"/>
            </iidm:generator>
            <iidm:generator id="GEN-66" energySource="OTHER" minP="0.0" maxP="492.0" ratedS="100.0" targetP="392.0" localTargetV="1.05" localTargetQ="0.0" bus="BUS-66" connectableBus="BUS-66">
                <iidm:minMaxReactiveLimits minQ="-67.0" maxQ="200.0"/>
                <iidm:voltageRegulation mode="VOLTAGE" regulating="true"/>
            </iidm:generator>
            <iidm:load id="LOAD-66" loadType="UNDEFINED" p0="39.0" q0="18.0" bus="BUS-66" connectableBus="BUS-66"/>
        </iidm:voltageLevel>
        <iidm:twoWindingsTransformer id="TWT-65-66" r="0.0" x="3.7E-4" ratedU1="0.935" ratedU2="1.0" voltageLevelId1="VL-65" bus1="BUS-65" connectableBus1="BUS-65" voltageLevelId2="VL-65" bus2="BUS-66" connectableBus2="BUS-66"/>
    </iidm:substation>
    <iidm:substation id="SUB-67">
        <iidm:voltageLevel id="VL-67" nominalV="1.0" lowVoltageLimit="0.94" highVoltageLimit="1.06" topologyKind="BUS_BREAKER">
            <iidm:busBreakerTopology>
                <iidm:bus id="BUS-67" v="1.02" angle="24.84"/>
            </iidm:busBreakerTopology>
            <iidm:load id="LOAD-67" loadType="UNDEFINED" p0="28.0" q0="7.0" bus="BUS-67" connectableBus="BUS-67"/>
        </iidm:voltageLevel>
    </iidm:substation>
    <iidm:substation id="SUB-68">
        <iidm:voltageLevel id="VL-68" nominalV="1.0" lowVoltageLimit="0.94" highVoltageLimit="1.06" topologyKind="BUS_BREAKER">
            <iidm:busBreakerTopology>
                <iidm:bus id="BUS-68" v="1.003" angle="27.55"/>
                <iidm:bus id="BUS-69" v="1.035" angle="30.0"/>
            </iidm:busBreakerTopology>
            <iidm:generator id="GEN-69" energySource="OTHER" minP="0.0" maxP="805.2" ratedS="100.0" targetP="516.4" localTargetV="1.035" localTargetQ="0.0" bus="BUS-69" connectableBus="BUS-69">
                <iidm:minMaxReactiveLimits minQ="-300.0" maxQ="300.0"/>
                <iidm:voltageRegulation mode="VOLTAGE" regulating="true"/>
            </iidm:generator>
        </iidm:voltageLevel>
        <iidm:twoWindingsTransformer id="TWT-68-69" r="0.0" x="3.7E-4" ratedU1="0.935" ratedU2="1.0" voltageLevelId1="VL-68" bus1="BUS-68" connectableBus1="BUS-68" voltageLevelId2="VL-68" bus2="BUS-69" connectableBus2="BUS-69"/>
    </iidm:substation>
    <iidm:substation id="SUB-70">
        <iidm:voltageLevel id="VL-70" nominalV="1.0" lowVoltageLimit="0.94" highVoltageLimit="1.06" topologyKind="BUS_BREAKER">
            <iidm:busBreakerTopology>
                <iidm:bus id="BUS-70" v="0.984" angle="22.58"/>
            </iidm:busBreakerTopology>
            <iidm:generator id="GEN-70" energySource="OTHER" minP="0.0" maxP="100.0" ratedS="100.0" targetP="0.0" localTargetV="0.984" localTargetQ="0.0" bus="BUS-70" connectableBus="BUS-70">
                <iidm:minMaxReactiveLimits minQ="-10.0" maxQ="32.0"/>
                <iidm:voltageRegulation mode="VOLTAGE" regulating="true"/>
            </iidm:generator>
            <iidm:load id="LOAD-70" loadType="UNDEFINED" p0="66.0" q0="20.0" bus="BUS-70" connectableBus="BUS-70"/>
        </iidm:voltageLevel>
    </iidm:substation>
    <iidm:substation id="SUB-71">
        <iidm:voltageLevel id="VL-71" nominalV="1.0" lowVoltageLimit="0.94" highVoltageLimit="1.06" topologyKind="BUS_BREAKER">
            <iidm:busBreakerTopology>
                <iidm:bus id="BUS-71" v="0.987" angle="22.15"/>
            </iidm:busBreakerTopology>
        </iidm:voltageLevel>
    </iidm:substation>
    <iidm:substation id="SUB-72">
        <iidm:voltageLevel id="VL-72" nominalV="1.0" lowVoltageLimit="0.94" highVoltageLimit="1.06" topologyKind="BUS_BREAKER">
            <iidm:busBreakerTopology>
                <iidm:bus id="BUS-72" v="0.98" angle="20.98"/>
            </iidm:busBreakerTopology>
            <iidm:generator id="GEN-72" energySource="OTHER" minP="0.0" maxP="100.0" ratedS="100.0" targetP="0.0" localTargetV="0.98" localTargetQ="0.0" bus="BUS-72" connectableBus="BUS-72">
                <iidm:minMaxReactiveLimits minQ="-100.0" maxQ="100.0"/>
                <iidm:voltageRegulation mode="VOLTAGE" regulating="true"/>
            </iidm:generator>
            <iidm:load id="LOAD-72" loadType="UNDEFINED" p0="12.0" q0="0.0" bus="BUS-72" connectableBus="BUS-72"/>
        </iidm:voltageLevel>
    </iidm:substation>
    <iidm:substation id="SUB-73">
        <iidm:voltageLevel id="VL-73" nominalV="1.0" lowVoltageLimit="0.94" highVoltageLimit="1.06" topologyKind="BUS_BREAKER">
            <iidm:busBreakerTopology>
                <iidm:bus id="BUS-73" v="0.991" angle="21.94"/>
            </iidm:busBreakerTopology>
            <iidm:generator id="GEN-73" energySource="OTHER" minP="0.0" maxP="100.0" ratedS="100.0" targetP="0.0" localTargetV="0.991" localTargetQ="0.0" bus="BUS-73" connectableBus="BUS-73">
                <iidm:minMaxReactiveLimits minQ="-100.0" maxQ="100.0"/>
                <iidm:voltageRegulation mode="VOLTAGE" regulating="true"/>
            </iidm:generator>
            <iidm:load id="LOAD-73" loadType="UNDEFINED" p0="6.0" q0="0.0" bus="BUS-73" connectableBus="BUS-73"/>
        </iidm:voltageLevel>
    </iidm:substation>
    <iidm:substation id="SUB-74">
        <iidm:voltageLevel id="VL-74" nominalV="1.0" lowVoltageLimit="0.94" highVoltageLimit="1.06" topologyKind="BUS_BREAKER">
            <iidm:busBreakerTopology>
                <iidm:bus id="BUS-74" v="0.958" angle="21.64"/>
            </iidm:busBreakerTopology>
            <iidm:generator id="GEN-74" energySource="OTHER" minP="0.0" maxP="100.0" ratedS="100.0" targetP="0.0" localTargetV="0.958" localTargetQ="0.0" bus="BUS-74" connectableBus="BUS-74">
                <iidm:minMaxReactiveLimits minQ="-6.0" maxQ="9.0"/>
                <iidm:voltageRegulation mode="VOLTAGE" regulating="true"/>
            </iidm:generator>
            <iidm:load id="LOAD-74" loadType="UNDEFINED" p0="68.0" q0="27.0" bus="BUS-74" connectableBus="BUS-74"/>
            <iidm:shuntCompensator id="SHUNT-74" sectionCount="1" bus="BUS-74" connectableBus="BUS-74">
                <iidm:shuntLinearModel bPerSection="12.0" gPerSection="0.0" maximumSectionCount="1"/>
            </iidm:shuntCompensator>
        </iidm:voltageLevel>
    </iidm:substation>
    <iidm:substation id="SUB-75">
        <iidm:voltageLevel id="VL-75" nominalV="1.0" lowVoltageLimit="0.94" highVoltageLimit="1.06" topologyKind="BUS_BREAKER">
            <iidm:busBreakerTopology>
                <iidm:bus id="BUS-75" v="0.967" angle="22.91"/>
            </iidm:busBreakerTopology>
            <iidm:load id="LOAD-75" loadType="UNDEFINED" p0="47.0" q0="11.0" bus="BUS-75" connectableBus="BUS-75"/>
        </iidm:voltageLevel>
    </iidm:substation>
    <iidm:substation id="SUB-76">
        <iidm:voltageLevel id="VL-76" nominalV="1.0" lowVoltageLimit="0.94" highVoltageLimit="1.06" topologyKind="BUS_BREAKER">
            <iidm:busBreakerTopology>
                <iidm:bus id="BUS-76" v="0.943" angle="21.77"/>
            </iidm:busBreakerTopology>
            <iidm:generator id="GEN-76" energySource="OTHER" minP="0.0" maxP="100.0" ratedS="100.0" targetP="0.0" localTargetV="0.943" localTargetQ="0.0" bus="BUS-76" connectableBus="BUS-76">
                <iidm:minMaxReactiveLimits minQ="-8.0" maxQ="23.0"/>
                <iidm:voltageRegulation mode="VOLTAGE" regulating="true"/>
            </iidm:generator>
            <iidm:load id="LOAD-76" loadType="UNDEFINED" p0="68.0" q0="36.0" bus="BUS-76" connectableBus="BUS-76"/>
        </iidm:voltageLevel>
    </iidm:substation>
    <iidm:substation id="SUB-77">
        <iidm:voltageLevel id="VL-77" nominalV="1.0" lowVoltageLimit="0.94" highVoltageLimit="1.06" topologyKind="BUS_BREAKER">
            <iidm:busBreakerTopology>
                <iidm:bus id="BUS-77" v="1.006" angle="26.72"/>
            </iidm:busBreakerTopology>
            <iidm:generator id="GEN-77" energySource="OTHER" minP="0.0" maxP="100.0" ratedS="100.0" targetP="0.0" localTargetV="1.006" localTargetQ="0.0" bus="BUS-77" connectableBus="BUS-77">
                <iidm:minMaxReactiveLimits minQ="-20.0" maxQ="70.0"/>
                <iidm:voltageRegulation mode="VOLTAGE" regulating="true"/>
            </iidm:generator>
            <iidm:load id="LOAD-77" loadType="UNDEFINED" p0="61.0" q0="28.0" bus="BUS-77" connectableBus="BUS-77"/>
        </iidm:voltageLevel>
    </iidm:substation>
    <iidm:substation id="SUB-78">
        <iidm:voltageLevel id="VL-78" nominalV="1.0" lowVoltageLimit="0.94" highVoltageLimit="1.06" topologyKind="BUS_BREAKER">
            <iidm:busBreakerTopology>
                <iidm:bus id="BUS-78" v="1.003" angle="26.42"/>
            </iidm:busBreakerTopology>
            <iidm:load id="LOAD-78" loadType="UNDEFINED" p0="71.0" q0="26.0" bus="BUS-78" connectableBus="BUS-78"/>
        </iidm:voltageLevel>
    </iidm:substation>
    <iidm:substation id="SUB-79">
        <iidm:voltageLevel id="VL-79" nominalV="1.0" lowVoltageLimit="0.94" highVoltageLimit="1.06" topologyKind="BUS_BREAKER">
            <iidm:busBreakerTopology>
                <iidm:bus id="BUS-79" v="1.009" angle="26.72"/>
            </iidm:busBreakerTopology>
            <iidm:load id="LOAD-79" loadType="UNDEFINED" p0="39.0" q0="32.0" bus="BUS-79" connectableBus="BUS-79"/>
            <iidm:shuntCompensator id="SHUNT-79" sectionCount="1" bus="BUS-79" connectableBus="BUS-79">
                <iidm:shuntLinearModel bPerSection="20.0" gPerSection="0.0" maximumSectionCount="1"/>
            </iidm:shuntCompensator>
        </iidm:voltageLevel>
    </iidm:substation>
    <iidm:substation id="SUB-80">
        <iidm:voltageLevel id="VL-80" nominalV="1.0" lowVoltageLimit="0.94" highVoltageLimit="1.06" topologyKind="BUS_BREAKER">
            <iidm:busBreakerTopology>
                <iidm:bus id="BUS-80" v="1.04" angle="28.96"/>
                <iidm:bus id="BUS-81" v="0.997" angle="28.1"/>
            </iidm:busBreakerTopology>
            <iidm:generator id="GEN-80" energySource="OTHER" minP="0.0" maxP="577.0" ratedS="100.0" targetP="477.0" localTargetV="1.04" localTargetQ="0.0" bus="BUS-80" connectableBus="BUS-80">
                <iidm:minMaxReactiveLimits minQ="-165.0" maxQ="280.0"/>
                <iidm:voltageRegulation mode="VOLTAGE" regulating="true"/>
            </iidm:generator>
            <iidm:load id="LOAD-80" loadType="UNDEFINED" p0="130.0" q0="26.0" bus="BUS-80" connectableBus="BUS-80"/>
        </iidm:voltageLevel>
        <iidm:twoWindingsTransformer id="TWT-81-80" r="0.0" x="3.7E-4" ratedU1="0.935" ratedU2="1.0" voltageLevelId1="VL-80" bus1="BUS-81" connectableBus1="BUS-81" voltageLevelId2="VL-80" bus2="BUS-80" connectableBus2="BUS-80"/>
    </iidm:substation>
    <iidm:substation id="SUB-82">
        <iidm:voltageLevel id="VL-82" nominalV="1.0" lowVoltageLimit="0.94" highVoltageLimit="1.06" topologyKind="BUS_BREAKER">
            <iidm:busBreakerTopology>
                <iidm:bus id="BUS-82" v="0.989" angle="27.24"/>
            </iidm:busBreakerTopology>
            <iidm:load id="LOAD-82" loadType="UNDEFINED" p0="54.0" q0="27.0" bus="BUS-82" connectableBus="BUS-82"/>
            <iidm:shuntCompensator id="SHUNT-82" sectionCount="1" bus="BUS-82" connectableBus="BUS-82">
                <iidm:shuntLinearModel bPerSection="20.0" gPerSection="0.0" maximumSectionCount="1"/>
            </iidm:shuntCompensator>
        </iidm:voltageLevel>
    </iidm:substation>
    <iidm:substation id="SUB-83">
        <iidm:voltageLevel id="VL-83" nominalV="1.0" lowVoltageLimit="0.94" highVoltageLimit="1.06" topologyKind="BUS_BREAKER">
            <iidm:busBreakerTopology>
                <iidm:bus id="BUS-83" v="0.985" angle="28.42"/>
            </iidm:busBreakerTopology>
            <iidm:load id="LOAD-83" loadType="UNDEFINED" p0="20.0" q0="10.0" bus="BUS-83" connectableBus="BUS-83"/>
            <iidm:shuntCompensator id="SHUNT-83" sectionCount="1" bus="BUS-83" connectableBus="BUS-83">
                <iidm:shuntLinearModel bPerSection="10.0" gPerSection="0.0" maximumSectionCount="1"/>
            </iidm:shuntCompensator>
        </iidm:voltageLevel>
    </iidm:substation>
    <iidm:substation id="SUB-84">
        <iidm:voltageLevel id="VL-84" nominalV="1.0" lowVoltageLimit="0.94" highVoltageLimit="1.06" topologyKind="BUS_BREAKER">
            <iidm:busBreakerTopology>
                <iidm:bus id="BUS-84" v="0.98" angle="30.95"/>
            </iidm:busBreakerTopology>
            <iidm:load id="LOAD-84" loadType="UNDEFINED" p0="11.0" q0="7.0" bus="BUS-84" connectableBus="BUS-84"/>
        </iidm:voltageLevel>
    </iidm:substation>
    <iidm:substation id="SUB-85">
        <iidm:voltageLevel id="VL-85" nominalV="1.0" lowVoltageLimit="0.94" highVoltageLimit="1.06" topologyKind="BUS_BREAKER">
            <iidm:busBreakerTopology>
                <iidm:bus id="BUS-85" v="0.985" angle="32.51"/>
            </iidm:busBreakerTopology>
            <iidm:generator id="GEN-85" energySource="OTHER" minP="0.0" maxP="100.0" ratedS="100.0" targetP="0.0" localTargetV="0.985" localTargetQ="0.0" bus="BUS-85" connectableBus="BUS-85">
                <iidm:minMaxReactiveLimits minQ="-8.0" maxQ="23.0"/>
                <iidm:voltageRegulation mode="VOLTAGE" regulating="true"/>
            </iidm:generator>
            <iidm:load id="LOAD-85" loadType="UNDEFINED" p0="24.0" q0="15.0" bus="BUS-85" connectableBus="BUS-85"/>
        </iidm:voltageLevel>
    </iidm:substation>
    <iidm:substation id="SUB-86">
        <iidm:voltageLevel id="VL-86" nominalV="1.0" lowVoltageLimit="0.94" highVoltageLimit="1.06" topologyKind="BUS_BREAKER">
            <iidm:busBreakerTopology>
                <iidm:bus id="BUS-86" v="0.987" angle="31.14"/>
            </iidm:busBreakerTopology>
            <iidm:load id="LOAD-86" loadType="UNDEFINED" p0="21.0" q0="10.0" bus="BUS-86" connectableBus="BUS-86"/>
        </iidm:voltageLevel>
    </iidm:substation>
    <iidm:substation id="SUB-87">
        <iidm:voltageLevel id="VL-87" nominalV="1.0" lowVoltageLimit="0.94" highVoltageLimit="1.06" topologyKind="BUS_BREAKER">
            <iidm:busBreakerTopology>
                <iidm:bus id="BUS-87" v="1.015" angle="31.4"/>
            </iidm:busBreakerTopology>
            <iidm:generator id="GEN-87" energySource="OTHER" minP="0.0" maxP="104.0" ratedS="100.0" targetP="4.0" localTargetV="1.015" localTargetQ="0.0" bus="BUS-87" connectableBus="BUS-87">
                <iidm:minMaxReactiveLimits minQ="-100.0" maxQ="1000.0"/>
                <iidm:voltageRegulation mode="VOLTAGE" regulating="true"/>
            </iidm:generator>
        </iidm:voltageLevel>
    </iidm:substation>
    <iidm:substation id="SUB-88">
        <iidm:voltageLevel id="VL-88" nominalV="1.0" lowVoltageLimit="0.94" highVoltageLimit="1.06" topologyKind="BUS_BREAKER">
            <iidm:busBreakerTopology>
                <iidm:bus id="BUS-88" v="0.987" angle="35.64"/>
            </iidm:busBreakerTopology>
            <iidm:load id="LOAD-88" loadType="UNDEFINED" p0="48.0" q0="10.0" bus="BUS-88" connectableBus="BUS-88"/>
        </iidm:voltageLevel>
    </iidm:substation>
    <iidm:substation id="SUB-89">
        <iidm:voltageLevel id="VL-89" nominalV="1.0" lowVoltageLimit="0.94" highVoltageLimit="1.06" topologyKind="BUS_BREAKER">
            <iidm:busBreakerTopology>
                <iidm:bus id="BUS-89" v="1.005" angle="39.69"/>
            </iidm:busBreakerTopology>
            <iidm:generator id="GEN-89" energySource="OTHER" minP="0.0" maxP="707.0" ratedS="100.0" targetP="607.0" localTargetV="1.005" localTargetQ="0.0" bus="BUS-89" connectableBus="BUS-89">
                <iidm:minMaxReactiveLimits minQ="-210.0" maxQ="300.0"/>
                <iidm:voltageRegulation mode="VOLTAGE" regulating="true"/>
            </iidm:generator>
        </iidm:voltageLevel>
    </iidm:substation>
    <iidm:substation id="SUB-90">
        <iidm:voltageLevel id="VL-90" nominalV="1.0" lowVoltageLimit="0.94" highVoltageLimit="1.06" topologyKind="BUS_BREAKER">
            <iidm:busBreakerTopology>
                <iidm:bus id="BUS-90" v="0.985" angle="33.29"/>
            </iidm:busBreakerTopology>
            <iidm:generator id="GEN-90" energySource="OTHER" minP="0.0" maxP="100.0" ratedS="100.0" targetP="0.0" localTargetV="0.985" localTargetQ="0.0" bus="BUS-90" connectableBus="BUS-90">
                <iidm:minMaxReactiveLimits minQ="-300.0" maxQ="300.0"/>
                <iidm:voltageRegulation mode="VOLTAGE" regulating="true"/>
            </iidm:generator>
            <iidm:load id="LOAD-90" loadType="UNDEFINED" p0="163.0" q0="42.0" bus="BUS-90" connectableBus="BUS-90"/>
        </iidm:voltageLevel>
    </iidm:substation>
    <iidm:substation id="SUB-91">
        <iidm:voltageLevel id="VL-91" nominalV="1.0" lowVoltageLimit="0.94" highVoltageLimit="1.06" topologyKind="BUS_BREAKER">
            <iidm:busBreakerTopology>
                <iidm:bus id="BUS-91" v="0.98" angle="33.31"/>
            </iidm:busBreakerTopology>
            <iidm:generator id="GEN-91" energySource="OTHER" minP="0.0" maxP="100.0" ratedS="100.0" targetP="0.0" localTargetV="0.98" localTargetQ="0.0" bus="BUS-91" connectableBus="BUS-91">
                <iidm:minMaxReactiveLimits minQ="-100.0" maxQ="100.0"/>
                <iidm:voltageRegulation mode="VOLTAGE" regulating="true"/>
            </iidm:generator>
            <iidm:load id="LOAD-91" loadType="UNDEFINED" p0="10.0" q0="0.0" bus="BUS-91" connectableBus="BUS-91"/>
        </iidm:voltageLevel>
    </iidm:substation>
    <iidm:substation id="SUB-92">
        <iidm:voltageLevel id="VL-92" nominalV="1.0" lowVoltageLimit="0.94" highVoltageLimit="1.06" topologyKind="BUS_BREAKER">
            <iidm:busBreakerTopology>
                <iidm:bus id="BUS-92" v="0.993" angle="33.8"/>
            </iidm:busBreakerTopology>
            <iidm:generator id="GEN-92" energySource="OTHER" minP="0.0" maxP="100.0" ratedS="100.0" targetP="0.0" localTargetV="0.99" localTargetQ="0.0" bus="BUS-92" connectableBus="BUS-92">
                <iidm:minMaxReactiveLimits minQ="-3.0" maxQ="9.0"/>
                <iidm:voltageRegulation mode="VOLTAGE" regulating="true"/>
            </iidm:generator>
            <iidm:load id="LOAD-92" loadType="UNDEFINED" p0="65.0" q0="10.0" bus="BUS-92" connectableBus="BUS-92"/>
        </iidm:voltageLevel>
    </iidm:substation>
    <iidm:substation id="SUB-93">
        <iidm:voltageLevel id="VL-93" nominalV="1.0" lowVoltageLimit="0.94" highVoltageLimit="1.06" topologyKind="BUS_BREAKER">
            <iidm:busBreakerTopology>
                <iidm:bus id="BUS-93" v="0.987" angle="30.79"/>
            </iidm:busBreakerTopology>
            <iidm:load id="LOAD-93" loadType="UNDEFINED" p0="12.0" q0="7.0" bus="BUS-93" connectableBus="BUS-93"/>
        </iidm:voltageLevel>
    </iidm:substation>
    <iidm:substation id="SUB-94">
...